#############################################################
#             ______       _    _          _                #
#            (_____ \     \ \  / /        | |               #
#             _____) )   _ \ \/ / |_  ____| |               #
#            |  ____/ | | | )  (|  _)/ _  | |               #
#            | |    | |_| |/ /\ \ |_( (_| | |___            #
#            |_|     \__  /_/  \_\___)__|_|_____)           #
#                   (____/                                  #
#---------------------(version    0.5.6)--------------------#
#       A Python package for random crystal generation      #
#       url: https://github.com/qzhu2017/pyxtal             #
#       @Zhu's group at University of Nevada Las Vegas      #
#############################################################
data_from_pyxtal

_symmetry_space_group_name_H-M 'I41md'
_symmetry_Int_Tables_number                  109
_symmetry_cell_setting                tetragonal
_cell_length_a            6.701248
_cell_length_b            6.701248
_cell_length_c            6.111679
_cell_angle_alpha        90.000000
_cell_angle_beta         90.000000
_cell_angle_gamma        90.000000
_cell_volume            274.455465

loop_
 _symmetry_equiv_pos_site_id
 _symmetry_equiv_pos_as_xyz
1 'x, y, z'
2 '-x+1/2, -y+1/2, z+1/2'
3 '-y, x+1/2, z+1/4'
4 'y+1/2, -x, z+3/4'
5 'x, -y, z'
6 '-x+1/2, y+1/2, z+1/2'
7 '-y, -x+1/2, z+1/4'
8 'y+1/2, x, z+3/4'
9 'x+1/2, y+1/2, z+1/2'
10 '-x+1, -y+1, z+1'
11 '-y+1/2, x+1, z+3/4'
12 'y+1, -x+1/2, z+5/4'
13 'x+1/2, -y+1/2, z+1/2'
14 '-x+1, y+1, z+1'
15 '-y+1/2, -x+1, z+3/4'
16 'y+1, x+1/2, z+5/4'

loop_
 _atom_site_label
 _atom_site_type_symbol
 _atom_site_symmetry_multiplicity
 _atom_site_fract_x
 _atom_site_fract_y
 _atom_site_fract_z
 _atom_site_occupancy
Nb     Nb       4     0.000000    0.000000    0.404891 1
Cr     Cr       4     0.000000    0.000000    0.656421 1
O      O        4     0.000000    0.000000    0.877420 1
O      O        8     0.000000    0.946043    0.181592 1
O      O        4     0.000000    0.000000    0.070322 1
#END

